      12
SCF Done                      NaN
Mg           -0.000229950         2.655366650         4.707014400
Mg            2.299729950         1.327484182         0.945014400
Mg           -0.000000000         2.654968364         4.707014400
Mg            0.000229950         2.655366650         4.707014400
Mg            2.299270050         1.327484182         0.945014400
Mg            2.299500000         1.327882467         0.945014400
O            -0.000229950         2.655366650         0.000000000
O             2.299729950         1.327484182         3.762000000
O            -0.000000000         2.654968364         0.000000000
O             0.000229950         2.655366650         0.000000000
O             2.299270050         1.327484182         3.762000000
O             2.299500000         1.327882467         3.762000000
