      26
SCF Done                      NaN
Ca            0.000000000         0.000000000         0.000000000
Ca            0.000000000         0.000000000         4.245000000
C            -0.000000000         2.074477252         2.122500000
C             2.065000000         1.502207665         6.367500000
C             0.268450000         2.539446291         2.122500000
C            -0.268450000         2.539446291         2.122500000
C             2.333450000         1.037238626         6.367500000
C             1.796550000         1.037238626         6.367500000
O            -0.000000000         0.858404380         2.122500000
O             2.065000000         2.718280537         6.367500000
O             1.321600000         3.147482727         2.122500000
O            -1.321600000         3.147482727         2.122500000
O             3.386600000         0.429202190         6.367500000
O             0.743400000         0.429202190         6.367500000
O            -0.000000000         2.718280537         1.018800000
O             2.065000000         0.858404380         5.263800000
O            -0.289100000         2.217544649         1.018800000
O             0.289100000         2.217544649         1.018800000
O             1.775900000         1.359140269         5.263800000
O             2.354100000         1.359140269         5.263800000
O             2.065000000         0.858404380         7.471200000
O             1.775900000         1.359140269         7.471200000
O             2.354100000         1.359140269         7.471200000
O            -0.289100000         2.217544649         3.226200000
O             0.289100000         2.217544649         3.226200000
O            -0.000000000         2.718280537         3.226200000
